
Version,
  23.2;                                   !- Version Identifier

Timestep,
  6;                                      !- Number of Timesteps per Hour

LifeCycleCost:Parameters,
  Life Cycle Cost Parameters,             !- Name
  EndOfYear,                              !- Discounting Convention
  ConstantDollar,                         !- Inflation Approach
  0.03,                                   !- Real Discount Rate
  ,                                       !- Nominal Discount Rate
  ,                                       !- Inflation
  ,                                       !- Base Date Month
  2011,                                   !- Base Date Year
  ,                                       !- Service Date Month
  2011,                                   !- Service Date Year
  25,                                     !- Length of Study Period in Years
  ,                                       !- Tax rate
  None;                                   !- Depreciation Method

LifeCycleCost:UsePriceEscalation,
  U.S. Avg  Commercial-Electricity,       !- Name
  Electricity,                            !- Resource
  2011,                                   !- Escalation Start Year
  January,                                !- Escalation Start Month
  0.9838,                                 !- Year Escalation 1
  0.9730,                                 !- Year Escalation 2
  0.9632,                                 !- Year Escalation 3
  0.9611,                                 !- Year Escalation 4
  0.9571,                                 !- Year Escalation 5
  0.9553,                                 !- Year Escalation 6
  0.9539,                                 !- Year Escalation 7
  0.9521,                                 !- Year Escalation 8
  0.9546,                                 !- Year Escalation 9
  0.9550,                                 !- Year Escalation 10
  0.9553,                                 !- Year Escalation 11
  0.9564,                                 !- Year Escalation 12
  0.9575,                                 !- Year Escalation 13
  0.9596,                                 !- Year Escalation 14
  0.9618,                                 !- Year Escalation 15
  0.9614,                                 !- Year Escalation 16
  0.9618,                                 !- Year Escalation 17
  0.9618,                                 !- Year Escalation 18
  0.9593,                                 !- Year Escalation 19
  0.9589,                                 !- Year Escalation 20
  0.9607,                                 !- Year Escalation 21
  0.9625,                                 !- Year Escalation 22
  0.9650,                                 !- Year Escalation 23
  0.9708,                                 !- Year Escalation 24
  0.9751,                                 !- Year Escalation 25
  0.9762,                                 !- Year Escalation 26
  0.9766,                                 !- Year Escalation 27
  0.9766,                                 !- Year Escalation 28
  0.9769,                                 !- Year Escalation 29
  0.9773;                                 !- Year Escalation 30

LifeCycleCost:UsePriceEscalation,
  U.S. Avg  Commercial-Distillate Oil,    !- Name
  FuelOilNo1,                             !- Resource
  2011,                                   !- Escalation Start Year
  January,                                !- Escalation Start Month
  0.9714,                                 !- Year Escalation 1
  0.9730,                                 !- Year Escalation 2
  0.9942,                                 !- Year Escalation 3
  1.0164,                                 !- Year Escalation 4
  1.0541,                                 !- Year Escalation 5
  1.0928,                                 !- Year Escalation 6
  1.1267,                                 !- Year Escalation 7
  1.1580,                                 !- Year Escalation 8
  1.1792,                                 !- Year Escalation 9
  1.1967,                                 !- Year Escalation 10
  1.2200,                                 !- Year Escalation 11
  1.2333,                                 !- Year Escalation 12
  1.2566,                                 !- Year Escalation 13
  1.2709,                                 !- Year Escalation 14
  1.2826,                                 !- Year Escalation 15
  1.2985,                                 !- Year Escalation 16
  1.3102,                                 !- Year Escalation 17
  1.3250,                                 !- Year Escalation 18
  1.3261,                                 !- Year Escalation 19
  1.3282,                                 !- Year Escalation 20
  1.3324,                                 !- Year Escalation 21
  1.3356,                                 !- Year Escalation 22
  1.3431,                                 !- Year Escalation 23
  1.3510,                                 !- Year Escalation 24
  1.3568,                                 !- Year Escalation 25
  1.3606,                                 !- Year Escalation 26
  1.3637,                                 !- Year Escalation 27
  1.3674,                                 !- Year Escalation 28
  1.3706,                                 !- Year Escalation 29
  1.3743;                                 !- Year Escalation 30

LifeCycleCost:UsePriceEscalation,
  U.S. Avg  Commercial-Residual Oil,      !- Name
  FuelOilNo2,                             !- Resource
  2011,                                   !- Escalation Start Year
  January,                                !- Escalation Start Month
  0.8469,                                 !- Year Escalation 1
  0.8257,                                 !- Year Escalation 2
  0.8681,                                 !- Year Escalation 3
  0.8988,                                 !- Year Escalation 4
  0.9289,                                 !- Year Escalation 5
  0.9604,                                 !- Year Escalation 6
  0.9897,                                 !- Year Escalation 7
  1.0075,                                 !- Year Escalation 8
  1.0314,                                 !- Year Escalation 9
  1.0554,                                 !- Year Escalation 10
  1.0861,                                 !- Year Escalation 11
  1.1278,                                 !- Year Escalation 12
  1.1497,                                 !- Year Escalation 13
  1.1620,                                 !- Year Escalation 14
  1.1743,                                 !- Year Escalation 15
  1.1852,                                 !- Year Escalation 16
  1.1948,                                 !- Year Escalation 17
  1.2037,                                 !- Year Escalation 18
  1.2071,                                 !- Year Escalation 19
  1.2119,                                 !- Year Escalation 20
  1.2139,                                 !- Year Escalation 21
  1.2194,                                 !- Year Escalation 22
  1.2276,                                 !- Year Escalation 23
  1.2365,                                 !- Year Escalation 24
  1.2420,                                 !- Year Escalation 25
  1.2461,                                 !- Year Escalation 26
  1.2509,                                 !- Year Escalation 27
  1.2550,                                 !- Year Escalation 28
  1.2591,                                 !- Year Escalation 29
  1.2638;                                 !- Year Escalation 30

LifeCycleCost:UsePriceEscalation,
  U.S. Avg  Commercial-Natural gas,       !- Name
  NaturalGas,                             !- Resource
  2011,                                   !- Escalation Start Year
  January,                                !- Escalation Start Month
  0.9823,                                 !- Year Escalation 1
  0.9557,                                 !- Year Escalation 2
  0.9279,                                 !- Year Escalation 3
  0.9257,                                 !- Year Escalation 4
  0.9346,                                 !- Year Escalation 5
  0.9412,                                 !- Year Escalation 6
  0.9512,                                 !- Year Escalation 7
  0.9645,                                 !- Year Escalation 8
  0.9856,                                 !- Year Escalation 9
  1.0067,                                 !- Year Escalation 10
  1.0222,                                 !- Year Escalation 11
  1.0410,                                 !- Year Escalation 12
  1.0610,                                 !- Year Escalation 13
  1.0787,                                 !- Year Escalation 14
  1.0942,                                 !- Year Escalation 15
  1.1098,                                 !- Year Escalation 16
  1.1220,                                 !- Year Escalation 17
  1.1308,                                 !- Year Escalation 18
  1.1386,                                 !- Year Escalation 19
  1.1486,                                 !- Year Escalation 20
  1.1619,                                 !- Year Escalation 21
  1.1763,                                 !- Year Escalation 22
  1.1918,                                 !- Year Escalation 23
  1.2118,                                 !- Year Escalation 24
  1.2284,                                 !- Year Escalation 25
  1.2439,                                 !- Year Escalation 26
  1.2605,                                 !- Year Escalation 27
  1.2772,                                 !- Year Escalation 28
  1.2938,                                 !- Year Escalation 29
  1.3115;                                 !- Year Escalation 30

LifeCycleCost:UsePriceEscalation,
  U.S. Avg  Commercial-Coal,              !- Name
  Coal,                                   !- Resource
  2011,                                   !- Escalation Start Year
  January,                                !- Escalation Start Month
  0.9970,                                 !- Year Escalation 1
  1.0089,                                 !- Year Escalation 2
  1.0089,                                 !- Year Escalation 3
  0.9941,                                 !- Year Escalation 4
  0.9941,                                 !- Year Escalation 5
  1.0000,                                 !- Year Escalation 6
  1.0030,                                 !- Year Escalation 7
  1.0059,                                 !- Year Escalation 8
  1.0089,                                 !- Year Escalation 9
  1.0119,                                 !- Year Escalation 10
  1.0148,                                 !- Year Escalation 11
  1.0178,                                 !- Year Escalation 12
  1.0208,                                 !- Year Escalation 13
  1.0267,                                 !- Year Escalation 14
  1.0297,                                 !- Year Escalation 15
  1.0356,                                 !- Year Escalation 16
  1.0415,                                 !- Year Escalation 17
  1.0534,                                 !- Year Escalation 18
  1.0564,                                 !- Year Escalation 19
  1.0593,                                 !- Year Escalation 20
  1.0653,                                 !- Year Escalation 21
  1.0712,                                 !- Year Escalation 22
  1.0742,                                 !- Year Escalation 23
  1.0801,                                 !- Year Escalation 24
  1.0831,                                 !- Year Escalation 25
  1.0831,                                 !- Year Escalation 26
  1.0861,                                 !- Year Escalation 27
  1.0890,                                 !- Year Escalation 28
  1.0920,                                 !- Year Escalation 29
  1.0950;                                 !- Year Escalation 30

Building,
  hb_revive_ADORB_model,                  !- Name
  0,                                      !- North Axis {deg}
  City,                                   !- Terrain
  ,                                       !- Loads Convergence Tolerance Value {W}
  ,                                       !- Temperature Convergence Tolerance Value {deltaC}
  FullExteriorWithReflections,            !- Solar Distribution
  ,                                       !- Maximum Number of Warmup Days
  ;                                       !- Minimum Number of Warmup Days

Shading:Building:Detailed,
  Shade_060ac412,                         !- Name
  ,                                       !- Transmittance Schedule Name
  ,                                       !- Number of Vertices
  16.687799999999, 8.013700000001, 2.968745929798, !- X,Y,Z Vertex 1 {m}
  16.687799999999, 8.31215, 2.883383719193, !- X,Y,Z Vertex 2 {m}
  13.461999999999, 8.31215, 2.883383719193, !- X,Y,Z Vertex 3 {m}
  13.461999999999, 8.013700000001, 2.968745929798; !- X,Y,Z Vertex 4 {m}

Shading:Building:Detailed,
  Shade_0ee59ad4,                         !- Name
  ,                                       !- Transmittance Schedule Name
  ,                                       !- Number of Vertices
  13.8176, 10.09015, 0,                   !- X,Y,Z Vertex 1 {m}
  13.8176, 10.09015, -2.159,              !- X,Y,Z Vertex 2 {m}
  13.8176, 8.02005, -2.159,               !- X,Y,Z Vertex 3 {m}
  13.8176, 8.02005, 0;                    !- X,Y,Z Vertex 4 {m}

Shading:Building:Detailed,
  Shade_40878738,                         !- Name
  ,                                       !- Transmittance Schedule Name
  ,                                       !- Number of Vertices
  -0.0127, 11.66495, 2.946043522005,      !- X,Y,Z Vertex 1 {m}
  -0.3048, 11.66495, 2.857633432984,      !- X,Y,Z Vertex 2 {m}
  -0.3048, 7.986756215134, 2.857633432984, !- X,Y,Z Vertex 3 {m}
  -0.0127, 7.986756215134, 2.946043522005; !- X,Y,Z Vertex 4 {m}

Shading:Building:Detailed,
  Shade_66d0b769,                         !- Name
  ,                                       !- Transmittance Schedule Name
  ,                                       !- Number of Vertices
  13.461999999999, 8.032750000001, 2.6527125, !- X,Y,Z Vertex 1 {m}
  13.462, 8.032750000001, 0.3556,         !- X,Y,Z Vertex 2 {m}
  13.462, 10.05205, 0.3556,               !- X,Y,Z Vertex 3 {m}
  13.462, 10.05205, 2.6527125;            !- X,Y,Z Vertex 4 {m}

Shading:Building:Detailed,
  Shade_6cba224f,                         !- Name
  ,                                       !- Transmittance Schedule Name
  ,                                       !- Number of Vertices
  14.731999999999, 10.09015, 0,           !- X,Y,Z Vertex 1 {m}
  14.732, 10.09015, -2.159,               !- X,Y,Z Vertex 2 {m}
  13.8176, 10.09015, -2.159,              !- X,Y,Z Vertex 3 {m}
  13.8176, 10.09015, 0;                   !- X,Y,Z Vertex 4 {m}

Shading:Building:Detailed,
  Shade_94f94873,                         !- Name
  ,                                       !- Transmittance Schedule Name
  ,                                       !- Number of Vertices
  8.166099999999, 11.56335, 2.6527125,    !- X,Y,Z Vertex 1 {m}
  8.166099999999, 8.032750000001, 2.6527125, !- X,Y,Z Vertex 2 {m}
  13.461999999999, 8.032750000001, 2.6527125, !- X,Y,Z Vertex 3 {m}
  13.461999999999, 11.56335, 2.6527125;   !- X,Y,Z Vertex 4 {m}

Shading:Building:Detailed,
  Shade_ab31c708,                         !- Name
  ,                                       !- Transmittance Schedule Name
  ,                                       !- Number of Vertices
  17.602199999999, 1.2446, 0,             !- X,Y,Z Vertex 1 {m}
  17.602199999999, 1.2446, -1.4986,       !- X,Y,Z Vertex 2 {m}
  17.602199999999, 2.7686, -1.4986,       !- X,Y,Z Vertex 3 {m}
  17.6022, 2.7686, 0;                     !- X,Y,Z Vertex 4 {m}

Shading:Building:Detailed,
  Shade_cb2f49e9,                         !- Name
  ,                                       !- Transmittance Schedule Name
  ,                                       !- Number of Vertices
  0, -0.0127, 2.9972,                     !- X,Y,Z Vertex 1 {m}
  0, -0.3937, 2.883383719193,             !- X,Y,Z Vertex 2 {m}
  16.6878, -0.393699999999, 2.883383719193, !- X,Y,Z Vertex 3 {m}
  16.6878, -0.012699999999, 2.9972;       !- X,Y,Z Vertex 4 {m}

Shading:Building:Detailed,
  Shade_ebe392de,                         !- Name
  ,                                       !- Transmittance Schedule Name
  ,                                       !- Number of Vertices
  16.687799999999, 1.2446, 0,             !- X,Y,Z Vertex 1 {m}
  16.687799999999, 1.2446, -1.4986,       !- X,Y,Z Vertex 2 {m}
  17.602199999999, 1.2446, -1.4986,       !- X,Y,Z Vertex 3 {m}
  17.602199999999, 1.2446, 0;             !- X,Y,Z Vertex 4 {m}

Shading:Building:Detailed,
  Shade_f823b8c2,                         !- Name
  ,                                       !- Transmittance Schedule Name
  ,                                       !- Number of Vertices
  17.6022, 2.7686, 0,                     !- X,Y,Z Vertex 1 {m}
  17.602199999999, 2.7686, -1.4986,       !- X,Y,Z Vertex 2 {m}
  16.687799999999, 2.7686, -1.4986,       !- X,Y,Z Vertex 3 {m}
  16.6878, 2.7686, 0;                     !- X,Y,Z Vertex 4 {m}

Shading:Building:Detailed,
  Shade_fd8158a0,                         !- Name
  ,                                       !- Transmittance Schedule Name
  ,                                       !- Number of Vertices
  14.731999999999, 8.02005, 0,            !- X,Y,Z Vertex 1 {m}
  14.731999999999, 8.02005, -2.159,       !- X,Y,Z Vertex 2 {m}
  14.732, 10.09015, -2.159,               !- X,Y,Z Vertex 3 {m}
  14.731999999999, 10.09015, 0;           !- X,Y,Z Vertex 4 {m}

Zone,
  Wholehouse_879bd36e,                    !- Name
  ,                                       !- Direction of Relative North {deg}
  0,                                      !- X Origin {m}
  0,                                      !- Y Origin {m}
  0,                                      !- Z Origin {m}
  ,                                       !- Type
  1,                                      !- Multiplier
  6.5024,                                 !- Ceiling Height {m}
  820.328491366919,                       !- Volume {m3}
  ,                                       !- Floor Area {m2}
  ,                                       !- Zone Inside Convection Algorithm
  ,                                       !- Zone Outside Convection Algorithm
  Yes;                                    !- Part of Total Floor Area

Space,
  Wholehouse_879bd36e_Space,              !- Name
  Wholehouse_879bd36e,                    !- Zone Name
  ,                                       !- Ceiling Height {m}
  ,                                       !- Volume {m3}
  ,                                       !- Floor Area {m2}
  ProgramType_692936d6;                   !- Space Type

SpaceList,
  ProgramType_692936d6,                   !- Name
  Wholehouse_879bd36e_Space;              !- Space Name 1

Lights,
  rv2024_Residence_Lighting,              !- Name
  ProgramType_692936d6,                   !- Zone or ZoneList or Space or SpaceList Name
  rv2024_Lighting,                        !- Schedule Name
  Watts/Area,                             !- Design Level Calculation Method
  ,                                       !- Lighting Level {W}
  16.858137875618,                        !- Watts per Zone Floor Area {W/m2}
  ,                                       !- Watts per Person {W/person}
  0,                                      !- Return Air Fraction
  0.6,                                    !- Fraction Radiant
  0.2,                                    !- Fraction Visible
  1,                                      !- Fraction Replaceable
  General;                                !- End-Use Subcategory

ScheduleTypeLimits,
  Fractional,                             !- Name
  0,                                      !- Lower Limit Value {BasedOnField A3}
  1,                                      !- Upper Limit Value {BasedOnField A3}
  Continuous,                             !- Numeric Type
  dimensionless;                          !- Unit Type

Schedule:Day:Interval,
  rv2024_Lighting_Day Schedule,           !- Name
  Fractional,                             !- Schedule Type Limits Name
  No,                                     !- Interpolate to Timestep
  04:00,                                  !- Time 1 {hh:mm}
  0.008,                                  !- Value Until Time 1
  05:00,                                  !- Time 2 {hh:mm}
  0.024,                                  !- Value Until Time 2
  06:00,                                  !- Time 3 {hh:mm}
  0.05,                                   !- Value Until Time 3
  07:00,                                  !- Time 4 {hh:mm}
  0.056,                                  !- Value Until Time 4
  08:00,                                  !- Time 5 {hh:mm}
  0.05,                                   !- Value Until Time 5
  09:00,                                  !- Time 6 {hh:mm}
  0.022,                                  !- Value Until Time 6
  14:00,                                  !- Time 7 {hh:mm}
  0.015,                                  !- Value Until Time 7
  15:00,                                  !- Time 8 {hh:mm}
  0.026,                                  !- Value Until Time 8
  16:00,                                  !- Time 9 {hh:mm}
  0.015,                                  !- Value Until Time 9
  17:00,                                  !- Time 10 {hh:mm}
  0.056,                                  !- Value Until Time 10
  18:00,                                  !- Time 11 {hh:mm}
  0.078,                                  !- Value Until Time 11
  19:00,                                  !- Time 12 {hh:mm}
  0.105,                                  !- Value Until Time 12
  20:00,                                  !- Time 13 {hh:mm}
  0.126,                                  !- Value Until Time 13
  21:00,                                  !- Time 14 {hh:mm}
  0.128,                                  !- Value Until Time 14
  22:00,                                  !- Time 15 {hh:mm}
  0.088,                                  !- Value Until Time 15
  23:00,                                  !- Time 16 {hh:mm}
  0.049,                                  !- Value Until Time 16
  24:00,                                  !- Time 17 {hh:mm}
  0.02;                                   !- Value Until Time 17

Schedule:Week:Daily,
  rv2024_Lighting Week Rule - Jan1-Dec31, !- Name
  rv2024_Lighting_Day Schedule,           !- Sunday Schedule:Day Name
  rv2024_Lighting_Day Schedule,           !- Monday Schedule:Day Name
  rv2024_Lighting_Day Schedule,           !- Tuesday Schedule:Day Name
  rv2024_Lighting_Day Schedule,           !- Wednesday Schedule:Day Name
  rv2024_Lighting_Day Schedule,           !- Thursday Schedule:Day Name
  rv2024_Lighting_Day Schedule,           !- Friday Schedule:Day Name
  rv2024_Lighting_Day Schedule,           !- Saturday Schedule:Day Name
  rv2024_Lighting_Day Schedule,           !- Holiday Schedule:Day Name
  rv2024_Lighting_Day Schedule,           !- SummerDesignDay Schedule:Day Name
  rv2024_Lighting_Day Schedule,           !- WinterDesignDay Schedule:Day Name
  rv2024_Lighting_Day Schedule,           !- CustomDay1 Schedule:Day Name
  rv2024_Lighting_Day Schedule;           !- CustomDay2 Schedule:Day Name

Schedule:Year,
  rv2024_Lighting,                        !- Name
  Fractional,                             !- Schedule Type Limits Name
  rv2024_Lighting Week Rule - Jan1-Dec31, !- Schedule:Week Name 1
  1,                                      !- Start Month 1
  1,                                      !- Start Day 1
  12,                                     !- End Month 1
  31;                                     !- End Day 1

People,
  rv2024_Residence_People,                !- Name
  ProgramType_692936d6,                   !- Zone or ZoneList or Space or SpaceList Name
  rv2024_Occupant_Presence,               !- Number of People Schedule Name
  People/Area,                            !- Number of People Calculation Method
  ,                                       !- Number of People
  0.0365601977243739,                     !- People per Floor Area {person/m2}
  ,                                       !- Floor Area per Person {m2/person}
  0.3,                                    !- Fraction Radiant
  ,                                       !- Sensible Heat Fraction
  rv2024_Occupant_Activity;               !- Activity Level Schedule Name

Schedule:Day:Interval,
  rv2024_Occupant_Presence_Day_Schedule,  !- Name
  Fractional,                             !- Schedule Type Limits Name
  No,                                     !- Interpolate to Timestep
  08:00,                                  !- Time 1 {hh:mm}
  1,                                      !- Value Until Time 1
  09:00,                                  !- Time 2 {hh:mm}
  0.9,                                    !- Value Until Time 2
  10:00,                                  !- Time 3 {hh:mm}
  0.4,                                    !- Value Until Time 3
  17:00,                                  !- Time 4 {hh:mm}
  0.25,                                   !- Value Until Time 4
  18:00,                                  !- Time 5 {hh:mm}
  0.55,                                   !- Value Until Time 5
  21:00,                                  !- Time 6 {hh:mm}
  0.9,                                    !- Value Until Time 6
  24:00,                                  !- Time 7 {hh:mm}
  1;                                      !- Value Until Time 7

Schedule:Week:Daily,
  rv2024_Occupant_Presence Week Rule - Jan1-Dec31, !- Name
  rv2024_Occupant_Presence_Day_Schedule,  !- Sunday Schedule:Day Name
  rv2024_Occupant_Presence_Day_Schedule,  !- Monday Schedule:Day Name
  rv2024_Occupant_Presence_Day_Schedule,  !- Tuesday Schedule:Day Name
  rv2024_Occupant_Presence_Day_Schedule,  !- Wednesday Schedule:Day Name
  rv2024_Occupant_Presence_Day_Schedule,  !- Thursday Schedule:Day Name
  rv2024_Occupant_Presence_Day_Schedule,  !- Friday Schedule:Day Name
  rv2024_Occupant_Presence_Day_Schedule,  !- Saturday Schedule:Day Name
  rv2024_Occupant_Presence_Day_Schedule,  !- Holiday Schedule:Day Name
  rv2024_Occupant_Presence_Day_Schedule,  !- SummerDesignDay Schedule:Day Name
  rv2024_Occupant_Presence_Day_Schedule,  !- WinterDesignDay Schedule:Day Name
  rv2024_Occupant_Presence_Day_Schedule,  !- CustomDay1 Schedule:Day Name
  rv2024_Occupant_Presence_Day_Schedule;  !- CustomDay2 Schedule:Day Name

Schedule:Year,
  rv2024_Occupant_Presence,               !- Name
  Fractional,                             !- Schedule Type Limits Name
  rv2024_Occupant_Presence Week Rule - Jan1-Dec31, !- Schedule:Week Name 1
  1,                                      !- Start Month 1
  1,                                      !- Start Day 1
  12,                                     !- End Month 1
  31;                                     !- End Day 1

ScheduleTypeLimits,
  Activity Level,                         !- Name
  0,                                      !- Lower Limit Value {BasedOnField A3}
  ,                                       !- Upper Limit Value {BasedOnField A3}
  Continuous,                             !- Numeric Type
  activitylevel;                          !- Unit Type

Schedule:Day:Interval,
  rv2024_Occupant_Activity_Day_Schedule,  !- Name
  Activity Level,                         !- Schedule Type Limits Name
  No,                                     !- Interpolate to Timestep
  24:00,                                  !- Time 1 {hh:mm}
  120;                                    !- Value Until Time 1

Schedule:Week:Daily,
  rv2024_Occupant_Activity Week Rule - Jan1-Dec31, !- Name
  rv2024_Occupant_Activity_Day_Schedule,  !- Sunday Schedule:Day Name
  rv2024_Occupant_Activity_Day_Schedule,  !- Monday Schedule:Day Name
  rv2024_Occupant_Activity_Day_Schedule,  !- Tuesday Schedule:Day Name
  rv2024_Occupant_Activity_Day_Schedule,  !- Wednesday Schedule:Day Name
  rv2024_Occupant_Activity_Day_Schedule,  !- Thursday Schedule:Day Name
  rv2024_Occupant_Activity_Day_Schedule,  !- Friday Schedule:Day Name
  rv2024_Occupant_Activity_Day_Schedule,  !- Saturday Schedule:Day Name
  rv2024_Occupant_Activity_Day_Schedule,  !- Holiday Schedule:Day Name
  rv2024_Occupant_Activity_Day_Schedule,  !- SummerDesignDay Schedule:Day Name
  rv2024_Occupant_Activity_Day_Schedule,  !- WinterDesignDay Schedule:Day Name
  rv2024_Occupant_Activity_Day_Schedule,  !- CustomDay1 Schedule:Day Name
  rv2024_Occupant_Activity_Day_Schedule;  !- CustomDay2 Schedule:Day Name

Schedule:Year,
  rv2024_Occupant_Activity,               !- Name
  Activity Level,                         !- Schedule Type Limits Name
  rv2024_Occupant_Activity Week Rule - Jan1-Dec31, !- Schedule:Week Name 1
  1,                                      !- Start Month 1
  1,                                      !- Start Day 1
  12,                                     !- End Month 1
  31;                                     !- End Day 1

ElectricEquipment,
  rv2024_Residence_ElectricEquipment,     !- Name
  ProgramType_692936d6,                   !- Zone or ZoneList or Space or SpaceList Name
  rv2024_MEL,                             !- Schedule Name
  Watts/Area,                             !- Design Level Calculation Method
  ,                                       !- Design Level {W}
  11.5311441024367,                       !- Watts per Zone Floor Area {W/m2}
  ,                                       !- Watts per Person {W/person}
  0,                                      !- Fraction Latent
  0,                                      !- Fraction Radiant
  0,                                      !- Fraction Lost
  Electric Equipment;                     !- End-Use Subcategory

Schedule:Day:Interval,