
OS:Version,
  {fdf32ee1-b143-4682-9d2b-214b550999a2}, !- Handle
  3.7.0;                                  !- Version Identifier

OS:Building,
  {d6bf603d-1c27-42b8-8d79-b97c733f1a0d}, !- Handle
  hb_revive_ADORB_model,                  !- Name
  ,                                       !- Building Sector Type
  0,                                      !- North Axis {deg}
  ,                                       !- Nominal Floor to Floor Height {m}
  ,                                       !- Space Type Name
  {66b75d3e-8370-4f3c-8296-be90bd159fcb}, !- Default Construction Set Name
  ,                                       !- Default Schedule Set Name
  ,                                       !- Standards Number of Stories
  ,                                       !- Standards Number of Above Ground Stories
  ,                                       !- Standards Template
  MediumOffice;                           !- Standards Building Type

OS:Facility,
  {afe75e8b-d537-4e5f-92e9-028d57c82153}; !- Handle

OS:Site,
  {fd376295-cc30-468f-b0ac-bc5540e9c69b}, !- Handle
  Site 1,                                 !- Name
  ,                                       !- Latitude {deg}
  ,                                       !- Longitude {deg}
  ,                                       !- Time Zone {hr}
  ,                                       !- Elevation {m}
  City;                                   !- Terrain

OS:SimulationControl,
  {ba2c6a7a-654d-4429-8e0c-05874092efc7}, !- Handle
  Yes,                                    !- Do Zone Sizing Calculation
  Yes,                                    !- Do System Sizing Calculation
  Yes,                                    !- Do Plant Sizing Calculation
  No,                                     !- Run Simulation for Sizing Periods
  Yes,                                    !- Run Simulation for Weather File Run Periods
  ,                                       !- Loads Convergence Tolerance Value {W}
  ,                                       !- Temperature Convergence Tolerance Value {deltaC}
  FullExteriorWithReflections;            !- Solar Distribution

OS:Sizing:Parameters,
  {fe3d2572-f127-48d0-8ad6-5abc351cb5b0}, !- Handle
  1.25,                                   !- Heating Sizing Factor
  1.15;                                   !- Cooling Sizing Factor

OS:Timestep,
  {883cf4ff-6a4d-480c-a383-5ce2ca8fd468}, !- Handle
  6;                                      !- Number of Timesteps per Hour

OS:ShadowCalculation,
  {ca070f1b-2e95-44ca-81b1-3ec7fad9a5c7}, !- Handle
  PolygonClipping,                        !- Shading Calculation Method
  Periodic,                               !- Shading Calculation Update Frequency Method
  30,                                     !- Shading Calculation Update Frequency
  15000,                                  !- Maximum Figures in Shadow Overlap Calculations
  ,                                       !- Polygon Clipping Algorithm
  512,                                    !- Pixel Counting Resolution
  ,                                       !- Sky Diffuse Modeling Algorithm
  No,                                     !- Output External Shading Calculation Results
  No,                                     !- Disable Self-Shading Within Shading Zone Groups
  No;                                     !- Disable Self-Shading From Shading Zone Groups to Other Zones

OS:HeatBalanceAlgorithm,
  {e56a8879-6104-41d2-a228-fe71888b23cd}, !- Handle
  ConductionTransferFunction,             !- Algorithm
  200;                                    !- Surface Temperature Upper Limit {C}

OS:RunPeriod,
  {dfff1a44-1f0c-4a8e-95ba-cd708a463a01}, !- Handle
  Run Period 1,                           !- Name
  1,                                      !- Begin Month
  1,                                      !- Begin Day of Month
  12,                                     !- End Month
  31,                                     !- End Day of Month
  ,                                       !- Use Weather File Holidays and Special Days
  ,                                       !- Use Weather File Daylight Saving Period
  ,                                       !- Apply Weekend Holiday Rule
  ,                                       !- Use Weather File Rain Indicators
  ,                                       !- Use Weather File Snow Indicators
  ;                                       !- Number of Times Runperiod to be Repeated

OS:LifeCycleCost:Parameters,
  {0a142181-6634-4d7f-bbef-4acff4f06c93}, !- Handle
  ,                                       !- Analysis Type
  ,                                       !- Discounting Convention
  ,                                       !- Inflation Approach
  ,                                       !- Real Discount Rate
  ,                                       !- Nominal Discount Rate
  ,                                       !- Inflation
  ,                                       !- Base Date Month
  ,                                       !- Base Date Year
  ,                                       !- Service Date Month
  ,                                       !- Service Date Year
  ;                                       !- Length of Study Period in Years

OS:WeatherFile,
  {fee9bf11-39d7-47ec-b3dc-f7b1004204ca}, !- Handle
  New York J F Kennedy IntL Ar,           !- City
  NY,                                     !- State Province Region
  USA,                                    !- Country
  TMY3,                                   !- Data Source
  744860,                                 !- WMO Number
  40.65,                                  !- Latitude {deg}
  -73.8,                                  !- Longitude {deg}
  -5,                                     !- Time Zone {hr}
  5,                                      !- Elevation {m}
  /Users/em/Dropbox/bldgtyp-00/00_PH_Tools/honeybee_REVIVE_grasshopper/tests/_source_weather/USA_NY_New.York-J.F.Kennedy.Intl.AP.744860_TMY3/USA_NY_New.York-J.F.Kennedy.Intl.AP.744860_TMY3.epw, !- Url
  76DE1CD4,                               !- Checksum
  ,                                       !- Start Date Actual Year
  Sunday;                                 !- Start Day of Week

OS:SizingPeriod:DesignDay,
  {97487800-fc86-4c7d-b1ed-72222cdb5638}, !- Handle
  New York J F Kennedy IntL Ar Ann Htg 99.6% Condns DB, !- Name
  -10.7,                                  !- Maximum Dry-Bulb Temperature {C}
  0,                                      !- Daily Dry-Bulb Temperature Range {deltaC}
  101265,                                 !- Barometric Pressure {Pa}
  7.5,                                    !- Wind Speed {m/s}
  320,                                    !- Wind Direction {deg}
  0,                                      !- Sky Clearness
  ,                                       !- Rain Indicator
  ,                                       !- Snow Indicator
  21,                                     !- Day of Month
  1,                                      !- Month
  WinterDesignDay,                        !- Day Type
  ,                                       !- Daylight Saving Time Indicator
  Wetbulb,                                !- Humidity Condition Type
  ,                                       !- Humidity Condition Day Schedule Name
  -10.7,                                  !- Wetbulb or DewPoint at Maximum Dry-Bulb {C}
  ,                                       !- Humidity Ratio at Maximum Dry-Bulb {kgWater/kgDryAir}
  ,                                       !- Enthalpy at Maximum Dry-Bulb {J/kg}
  ,                                       !- Dry-Bulb Temperature Range Modifier Type
  ,                                       !- Dry-Bulb Temperature Range Modifier Day Schedule Name
  ASHRAEClearSky;                         !- Solar Model Indicator

OS:SizingPeriod:DesignDay,
  {92916b01-df46-4723-b1aa-b789acc1459b}, !- Handle
  New York J F Kennedy IntL Ar Ann Hum_n 99.6% Condns DP=>MCDB, !- Name
  -8.9,                                   !- Maximum Dry-Bulb Temperature {C}
  0,                                      !- Daily Dry-Bulb Temperature Range {deltaC}
  101265,                                 !- Barometric Pressure {Pa}
  7.5,                                    !- Wind Speed {m/s}
  320,                                    !- Wind Direction {deg}
  0,                                      !- Sky Clearness
  ,                                       !- Rain Indicator
  ,                                       !- Snow Indicator
  21,                                     !- Day of Month
  1,                                      !- Month
  WinterDesignDay,                        !- Day Type
  ,                                       !- Daylight Saving Time Indicator
  Dewpoint,                               !- Humidity Condition Type
  ,                                       !- Humidity Condition Day Schedule Name
  -20.8,                                  !- Wetbulb or DewPoint at Maximum Dry-Bulb {C}
  ,                                       !- Humidity Ratio at Maximum Dry-Bulb {kgWater/kgDryAir}
  ,                                       !- Enthalpy at Maximum Dry-Bulb {J/kg}
  ,                                       !- Dry-Bulb Temperature Range Modifier Type
  ,                                       !- Dry-Bulb Temperature Range Modifier Day Schedule Name
  ASHRAEClearSky;                         !- Solar Model Indicator

OS:SizingPeriod:DesignDay,
  {13714c70-61ab-43c6-bc06-3ffeb0a64899}, !- Handle
  New York J F Kennedy IntL Ar Ann Htg Wind 99.6% Condns WS=>MCDB, !- Name
  -3.2,                                   !- Maximum Dry-Bulb Temperature {C}
  0,                                      !- Daily Dry-Bulb Temperature Range {deltaC}
  101265,                                 !- Barometric Pressure {Pa}
  14.2,                                   !- Wind Speed {m/s}
  320,                                    !- Wind Direction {deg}
  0,                                      !- Sky Clearness
  ,                                       !- Rain Indicator
  ,                                       !- Snow Indicator
  21,                                     !- Day of Month
  1,                                      !- Month
  WinterDesignDay,                        !- Day Type
  ,                                       !- Daylight Saving Time Indicator
  Wetbulb,                                !- Humidity Condition Type
  ,                                       !- Humidity Condition Day Schedule Name
  -3.2,                                   !- Wetbulb or DewPoint at Maximum Dry-Bulb {C}
  ,                                       !- Humidity Ratio at Maximum Dry-Bulb {kgWater/kgDryAir}
  ,                                       !- Enthalpy at Maximum Dry-Bulb {J/kg}
  ,                                       !- Dry-Bulb Temperature Range Modifier Type
  ,                                       !- Dry-Bulb Temperature Range Modifier Day Schedule Name
  ASHRAEClearSky;                         !- Solar Model Indicator

OS:SizingPeriod:DesignDay,
  {dbe67696-aaee-48b2-8179-48be4832cebf}, !- Handle
  New York J F Kennedy IntL Ar Ann Clg .4% Condns DB=>MWB, !- Name
  32.1,                                   !- Maximum Dry-Bulb Temperature {C}
  7.4,                                    !- Daily Dry-Bulb Temperature Range {deltaC}
  101265,                                 !- Barometric Pressure {Pa}
  5.6,                                    !- Wind Speed {m/s}
  230,                                    !- Wind Direction {deg}
  ,                                       !- Sky Clearness
  ,                                       !- Rain Indicator
  ,                                       !- Snow Indicator
  21,                                     !- Day of Month
  7,                                      !- Month
  SummerDesignDay,                        !- Day Type
  ,                                       !- Daylight Saving Time Indicator
  Wetbulb,                                !- Humidity Condition Type
  ,                                       !- Humidity Condition Day Schedule Name
  23.1,                                   !- Wetbulb or DewPoint at Maximum Dry-Bulb {C}
  ,                                       !- Humidity Ratio at Maximum Dry-Bulb {kgWater/kgDryAir}
  ,                                       !- Enthalpy at Maximum Dry-Bulb {J/kg}
  ,                                       !- Dry-Bulb Temperature Range Modifier Type
  ,                                       !- Dry-Bulb Temperature Range Modifier Day Schedule Name
  ASHRAETau,                              !- Solar Model Indicator
  ,                                       !- Beam Solar Day Schedule Name
  ,                                       !- Diffuse Solar Day Schedule Name
  0.541,                                  !- ASHRAE Clear Sky Optical Depth for Beam Irradiance {dimensionless}
  1.8;                                    !- ASHRAE Clear Sky Optical Depth for Diffuse Irradiance {dimensionless}

OS:SizingPeriod:DesignDay,
  {dbd1272e-2312-476d-8e54-965472e991c3}, !- Handle
  New York J F Kennedy IntL Ar Ann Clg .4% Condns WB=>MDB, !- Name
  29.1,                                   !- Maximum Dry-Bulb Temperature {C}
  7.4,                                    !- Daily Dry-Bulb Temperature Range {deltaC}
  101265,                                 !- Barometric Pressure {Pa}
  5.6,                                    !- Wind Speed {m/s}
  230,                                    !- Wind Direction {deg}
  ,                                       !- Sky Clearness
  ,                                       !- Rain Indicator
  ,                                       !- Snow Indicator
  21,                                     !- Day of Month
  7,                                      !- Month
  SummerDesignDay,                        !- Day Type
  ,                                       !- Daylight Saving Time Indicator
  Wetbulb,                                !- Humidity Condition Type
  ,                                       !- Humidity Condition Day Schedule Name
  25,                                     !- Wetbulb or DewPoint at Maximum Dry-Bulb {C}
  ,                                       !- Humidity Ratio at Maximum Dry-Bulb {kgWater/kgDryAir}
  ,                                       !- Enthalpy at Maximum Dry-Bulb {J/kg}
  ,                                       !- Dry-Bulb Temperature Range Modifier Type
  ,                                       !- Dry-Bulb Temperature Range Modifier Day Schedule Name
  ASHRAETau,                              !- Solar Model Indicator
  ,                                       !- Beam Solar Day Schedule Name
  ,                                       !- Diffuse Solar Day Schedule Name
  0.541,                                  !- ASHRAE Clear Sky Optical Depth for Beam Irradiance {dimensionless}
  1.8;                                    !- ASHRAE Clear Sky Optical Depth for Diffuse Irradiance {dimensionless}

OS:SizingPeriod:DesignDay,
  {30c925f7-f5af-4c1e-822b-359ee67b890d}, !- Handle
  New York J F Kennedy IntL Ar Ann Clg .4% Condns DP=>MDB, !- Name
  27,                                     !- Maximum Dry-Bulb Temperature {C}
  7.4,                                    !- Daily Dry-Bulb Temperature Range {deltaC}
  101265,                                 !- Barometric Pressure {Pa}
  5.6,                                    !- Wind Speed {m/s}
  230,                                    !- Wind Direction {deg}
  ,                                       !- Sky Clearness
  ,                                       !- Rain Indicator
  ,                                       !- Snow Indicator
  21,                                     !- Day of Month
  7,                                      !- Month
  SummerDesignDay,                        !- Day Type
  ,                                       !- Daylight Saving Time Indicator
  Dewpoint,                               !- Humidity Condition Type
  ,                                       !- Humidity Condition Day Schedule Name
  23.8,                                   !- Wetbulb or DewPoint at Maximum Dry-Bulb {C}
  ,                                       !- Humidity Ratio at Maximum Dry-Bulb {kgWater/kgDryAir}
  ,                                       !- Enthalpy at Maximum Dry-Bulb {J/kg}
  ,                                       !- Dry-Bulb Temperature Range Modifier Type
  ,                                       !- Dry-Bulb Temperature Range Modifier Day Schedule Name
  ASHRAETau,                              !- Solar Model Indicator
  ,                                       !- Beam Solar Day Schedule Name
  ,                                       !- Diffuse Solar Day Schedule Name
  0.541,                                  !- ASHRAE Clear Sky Optical Depth for Beam Irradiance {dimensionless}
  1.8;                                    !- ASHRAE Clear Sky Optical Depth for Diffuse Irradiance {dimensionless}

OS:SizingPeriod:DesignDay,
  {5a3c88d4-1926-4f0a-abf5-e5df0f245daf}, !- Handle
  New York J F Kennedy IntL Ar Ann Clg .4% Condns Enth=>MDB, !- Name
  29.1,                                   !- Maximum Dry-Bulb Temperature {C}
  7.4,                                    !- Daily Dry-Bulb Temperature Range {deltaC}
  101265,                                 !- Barometric Pressure {Pa}
  5.6,                                    !- Wind Speed {m/s}
  230,                                    !- Wind Direction {deg}
  ,                                       !- Sky Clearness
  ,                                       !- Rain Indicator
  ,                                       !- Snow Indicator
  21,                                     !- Day of Month
  7,                                      !- Month
  SummerDesignDay,                        !- Day Type
  ,                                       !- Daylight Saving Time Indicator
  Enthalpy,                               !- Humidity Condition Type
  ,                                       !- Humidity Condition Day Schedule Name
  23,                                     !- Wetbulb or DewPoint at Maximum Dry-Bulb {C}
  ,                                       !- Humidity Ratio at Maximum Dry-Bulb {kgWater/kgDryAir}
  75700,                                  !- Enthalpy at Maximum Dry-Bulb {J/kg}
  ,                                       !- Dry-Bulb Temperature Range Modifier Type
  ,                                       !- Dry-Bulb Temperature Range Modifier Day Schedule Name
  ASHRAETau,                              !- Solar Model Indicator
  ,                                       !- Beam Solar Day Schedule Name
  ,                                       !- Diffuse Solar Day Schedule Name
  0.541,                                  !- ASHRAE Clear Sky Optical Depth for Beam Irradiance {dimensionless}
  1.8;                                    !- ASHRAE Clear Sky Optical Depth for Diffuse Irradiance {dimensionless}

OS:Site:WaterMainsTemperature,
  {5487d2e4-5aec-443a-aab7-cc093a0866c4}, !- Handle
  CorrelationFromWeatherFile;             !- Calculation Method

OS:ClimateZones,
  {4a5216f4-d2e2-44c2-ba39-62e75a9d1e9e}, !- Handle
  ASHRAE,                                 !- Climate Zone Institution Name 1
  ANSI/ASHRAE Standard 169,               !- Climate Zone Document Name 1
  2006,                                   !- Climate Zone Document Year 1
  5A;                                     !- Climate Zone Value 1

OS:OutputControl:ReportingTolerances,
  {4be6a294-d707-48f1-9123-122a2a331d12}, !- Handle
  1.11,                                   !- Tolerance for Time Heating Setpoint Not Met {deltaC}
  1.11;                                   !- Tolerance for Time Cooling Setpoint Not Met {deltaC}

OS:Output:Variable,
  {ffc7920e-0843-466d-8527-a803ae3b1b8d}, !- Handle
  Output Variable 1,                      !- Name
  ,                                       !- Key Value
  AFN Zone Infiltration Sensible Heat Gain Energy, !- Variable Name
  Hourly;                                 !- Reporting Frequency

OS:Output:Variable,
  {20bd57d1-a2eb-4f2a-b095-abd927f930a5}, !- Handle
  Output Variable 2,                      !- Name
  ,                                       !- Key Value
  AFN Zone Infiltration Sensible Heat Loss Energy, !- Variable Name
  Hourly;                                 !- Reporting Frequency

OS:Output:Variable,
  {c69382ad-6e55-4405-b41c-fa5cdf7ce8d2}, !- Handle
  Output Variable 3,                      !- Name
  ,                                       !- Key Value
  AFN Zone Ventilation Sensible Heat Gain Energy, !- Variable Name
  Hourly;                                 !- Reporting Frequency

OS:Output:Variable,
  {7559d56d-cb07-4fb5-8192-33d77103aeae}, !- Handle
  Output Variable 4,                      !- Name
  ,                                       !- Key Value
  AFN Zone Ventilation Sensible Heat Loss Energy, !- Variable Name
  Hourly;                                 !- Reporting Frequency

OS:Output:Variable,
  {b319a72d-c8d6-4fae-80cb-9ee25bc9ef0e}, !- Handle
  Output Variable 5,                      !- Name
  ,                                       !- Key Value
  Baseboard Electricity Energy,           !- Variable Name
  Hourly;                                 !- Reporting Frequency

OS:Output:Variable,
  {08aeddb8-4fff-49db-8b06-2b7a194eb29e}, !- Handle
  Output Variable 6,                      !- Name
  ,                                       !- Key Value
  Boiler Electricity Energy,              !- Variable Name
  Hourly;                                 !- Reporting Frequency

OS:Output:Variable,
  {4c10a8a5-0c20-4213-9a2e-a7c39c944342}, !- Handle
  Output Variable 7,                      !- Name
  ,                                       !- Key Value
  Boiler NaturalGas Energy,               !- Variable Name
  Hourly;                                 !- Reporting Frequency

OS:Output:Variable,
  {1040242c-31d9-4a34-bfba-5a9c0acbc7b9}, !- Handle
  Output Variable 8,                      !- Name
  ,                                       !- Key Value
  Chiller Electricity Energy,             !- Variable Name
  Hourly;                                 !- Reporting Frequency

OS:Output:Variable,
  {87948704-3ded-47de-8d07-70f4a5500ca5}, !- Handle
  Output Variable 9,                      !- Name
  ,                                       !- Key Value
  Chiller Heater System Cooling Electricity Energy, !- Variable Name
  Hourly;                                 !- Reporting Frequency

OS:Output:Variable,
  {57b6e085-d709-4e76-b26a-3a5e7cdfec87}, !- Handle
  Output Variable 10,                     !- Name
  ,                                       !- Key Value
  Chiller Heater System Heating Electricity Energy, !- Variable Name
  Hourly;                                 !- Reporting Frequency

OS:Output:Variable,
  {2b44a54b-a772-4130-97f1-9e4e71b05925}, !- Handle
  Output Variable 11,                     !- Name
  ,                                       !- Key Value
  Cooling Coil Electricity Energy,        !- Variable Name
  Hourly;                                 !- Reporting Frequency

OS:Output:Variable,
  {0c18c203-fbc8-4226-96a3-655c8ffbbdf8}, !- Handle
  Output Variable 12,                     !- Name
  ,                                       !- Key Value
  Cooling Coil Water Heating Electricity Energy, !- Variable Name
  Hourly;                                 !- Reporting Frequency

OS:Output:Variable,
  {f58cdbeb-132b-439e-8737-8cc1872d0111}, !- Handle
  Output Variable 13,                     !- Name
  ,                                       !- Key Value
  Cooling Tower Fan Electricity Energy,   !- Variable Name
  Hourly;                                 !- Reporting Frequency

OS:Output:Variable,
  {1e8720f7-7cee-4ba0-80f2-8643381dd4c8}, !- Handle
  Output Variable 14,                     !- Name
  ,                                       !- Key Value
  District Cooling Water Energy,          !- Variable Name
  Hourly;                                 !- Reporting Frequency

OS:Output:Variable,
  {6a304ea9-58da-43be-979d-7dabf01c5677}, !- Handle
  Output Variable 15,                     !- Name
  ,                                       !- Key Value
  District Heating Water Energy,          !- Variable Name
  Hourly;                                 !- Reporting Frequency

OS:Output:Variable,
  {8bfdaf25-fea2-4ed4-bee1-c65649b2ce09}, !- Handle
  Output Variable 16,                     !- Name
  ,                                       !- Key Value
  Evaporative Cooler Electricity Energy,  !- Variable Name
  Hourly;                                 !- Reporting Frequency

OS:Output:Variable,
  {6fd4ef63-c6b8-44bb-a923-1220e7845300}, !- Handle
  Output Variable 17,                     !- Name
  ,                                       !- Key Value
  Facility Net Purchased Electricity Energy, !- Variable Name
  Hourly;                                 !- Reporting Frequency

OS:Output:Variable,
  {d1f9b90b-649d-4159-8769-b82ac76ae1c9}, !- Handle
  Output Variable 18,                     !- Name
  ,                                       !- Key Value
  Facility Total Building Electricity Demand Rate, !- Variable Name
  Hourly;                                 !- Reporting Frequency

OS:Output:Variable,
  {15aa02c5-78ff-4c27-8674-36824a6d3781}, !- Handle
  Output Variable 19,                     !- Name
  ,                                       !- Key Value
  Facility Total Produced Electricity Energy, !- Variable Name
  Hourly;                                 !- Reporting Frequency

OS:Output:Variable,
  {f3373cfa-5dd2-43c8-8831-f6a93364a410}, !- Handle
  Output Variable 20,                     !- Name
  ,                                       !- Key Value
  Facility Total Purchased Electricity Energy, !- Variable Name
  Hourly;                                 !- Reporting Frequency

OS:Output:Variable,
  {4ad99eba-e7e7-4bdb-a0a5-7bd3b15620d0}, !- Handle
  Output Variable 21,                     !- Name
  ,                                       !- Key Value
  Facility Total Surplus Electricity Energy, !- Variable Name
  Hourly;                                 !- Reporting Frequency

OS:Output:Variable,
  {0e58eb9f-25ee-4168-a380-661da16f98b5}, !- Handle
  Output Variable 22,                     !- Name
  ,                                       !- Key Value
  Fan Electricity Energy,                 !- Variable Name
  Hourly;                                 !- Reporting Frequency

OS:Output:Variable,
  {9f8ed47c-1e17-40f7-9a82-77bf27214dfd}, !- Handle
  Output Variable 23,                     !- Name
  ,                                       !- Key Value
  Generator Produced DC Electricity Energy, !- Variable Name
  Hourly;                                 !- Reporting Frequency

OS:Output:Variable,
  {885046e1-705a-4de2-a845-c3052f78695c}, !- Handle
  Output Variable 24,                     !- Name
  ,                                       !- Key Value
  Heating Coil Electricity Energy,        !- Variable Name
  Hourly;                                 !- Reporting Frequency

OS:Output:Variable,
  {f0236521-2217-4ae2-ae1d-ecd80c48d5ac}, !- Handle
  Output Variable 25,                     !- Name
  ,                                       !- Key Value
  Heating Coil NaturalGas Energy,         !- Variable Name
  Hourly;                                 !- Reporting Frequency

OS:Output:Variable,
  {731bdf80-0f8c-4b5a-a77a-78e132cebe53}, !- Handle
  Output Variable 26,                     !- Name
  ,                                       !- Key Value
  Heating Coil Total Heating Energy,      !- Variable Name
  Hourly;                                 !- Reporting Frequency

OS:Output:Variable,
  {0f3388a0-bef3-4ea2-a9cf-1972a514227e}, !- Handle
  Output Variable 27,                     !- Name
  ,                                       !- Key Value
  Hot_Water_Loop_Central_Air_Source_Heat_Pump Electricity Consumption, !- Variable Name
  Hourly;                                 !- Reporting Frequency

OS:Output:Variable,
  {9754bbed-268d-40b5-b260-3979ea021b9b}, !- Handle
  Output Variable 28,                     !- Name
  ,                                       !- Key Value
  Humidifier Electricity Energy,          !- Variable Name
  Hourly;                                 !- Reporting Frequency

OS:Output:Variable,
  {f5200221-d8c7-44f1-98d8-6e7a51b03559}, !- Handle
  Output Variable 29,                     !- Name
  ,                                       !- Key Value
  Pump Electricity Energy,                !- Variable Name
  Hourly;                                 !- Reporting Frequency

OS:Output:Variable,
  {f9ce41cc-59b8-48e0-9ae3-4184bb65df6a}, !- Handle
  Output Variable 30,                     !- Name
  ,                                       !- Key Value
  VRF Heat Pump Cooling Electricity Energy, !- Variable Name
  Hourly;                                 !- Reporting Frequency

OS:Output:Variable,
  {0d5d54e7-c66b-4025-b47f-d2926e2c2b4f}, !- Handle
  Output Variable 31,                     !- Name
  ,                                       !- Key Value
  VRF Heat Pump Crankcase Heater Electricity Energy, !- Variable Name
  Hourly;                                 !- Reporting Frequency

OS:Output:Variable,
  {0ae856fb-0fd7-4a50-bbd5-82dfcebb2e0d}, !- Handle
  Output Variable 32,                     !- Name
  ,                                       !- Key Value
  VRF Heat Pump Defrost Electricity Energy, !- Variable Name
  Hourly;                                 !- Reporting Frequency

OS:Output:Variable,
  {c3445e2d-faac-45dc-a2b1-69aa99aa0cf6}, !- Handle
  Output Variable 33,                     !- Name
  ,                                       !- Key Value
  VRF Heat Pump Heating Electricity Energy, !- Variable Name
  Hourly;                                 !- Reporting Frequency

OS:Output:Variable,
  {bc8a8f45-861d-4783-b9a2-9033ecbeda23}, !- Handle
  Output Variable 34,                     !- Name