!- Windows Line endings

VERSION,23.2;

SIMULATIONCONTROL,
  Yes,                     !- Do Zone Sizing Calculation
  Yes,                     !- Do System Sizing Calculation
  No,                      !- Do Plant Sizing Calculation
  No,                      !- Run Simulation for Sizing Periods
  Yes,                     !- Run Simulation for Weather File Run Periods
  No,                      !- Do HVAC Sizing Simulation for Sizing Periods
  25;                      !- Maximum Number of HVAC Sizing Simulation Passes

BUILDING,
  tesssstttt_M_10W-20S_StateCollegePA_BASE_NV,  !- Name
  0,                       !- North Axis {deg}
  City,                    !- Terrain
  0.04,                    !- Loads Convergence Tolerance Value {W}
  0.4,                     !- Temperature Convergence Tolerance Value {deltaC}
  FullInteriorAndExterior, !- Solar Distribution
  25,                      !- Maximum Number of Warmup Days
  6;                       !- Minimum Number of Warmup Days

ZONEAIRCONTAMINANTBALANCE,
  Yes,                     !- Carbon Dioxide Concentration
  CO2_Schedule,            !- Outdoor Carbon Dioxide Schedule Name
  No;                      !- Generic Contaminant Concentration

TIMESTEP,4;

SizingPeriod:DesignDay,
  Rochester International Arpt Ann Htg 99.6% Condns DB,  !- Name
  1,                       !- Month
  21,                      !- Day of Month
  WinterDesignDay,         !- Day Type
  -26.2,                   !- Maximum Dry-Bulb Temperature {C}
  0,                       !- Daily Dry-Bulb Temperature Range {deltaC}
  DefaultMultipliers,      !- Dry-Bulb Temperature Range Modifier Type
  ,                        !- Dry-Bulb Temperature Range Modifier Day Schedule Name
  Wetbulb,                 !- Humidity Condition Type
  -26.2,                   !- Wetbulb or DewPoint at Maximum Dry-Bulb {C}
  ,                        !- Humidity Condition Day Schedule Name
  ,                        !- Humidity Ratio at Maximum Dry-Bulb {kgWater/kgDryAir}
  ,                        !- Enthalpy at Maximum Dry-Bulb {J/kg}
  ,                        !- Daily Wet-Bulb Temperature Range {deltaC}
  96634,                   !- Barometric Pressure {Pa}
  5.7,                     !- Wind Speed {m/s}
  310,                     !- Wind Direction {deg}
  No,                      !- Rain Indicator
  No,                      !- Snow Indicator
  No,                      !- Daylight Saving Time Indicator
  ASHRAEClearSky,          !- Solar Model Indicator
  ,                        !- Beam Solar Day Schedule Name
  ,                        !- Diffuse Solar Day Schedule Name
  ,                        !- ASHRAE Clear Sky Optical Depth for Beam Irradiance (taub) {dimensionless}
  ,                        !- ASHRAE Clear Sky Optical Depth for Diffuse Irradiance (taud) {dimensionless}
  0;                       !- Sky Clearness

SizingPeriod:DesignDay,
  Rochester International Arpt Ann Htg 99% Condns DB,  !- Name
  1,                       !- Month
  21,                      !- Day of Month
  WinterDesignDay,         !- Day Type
  -22.9,                   !- Maximum Dry-Bulb Temperature {C}
  0,                       !- Daily Dry-Bulb Temperature Range {deltaC}
  DefaultMultipliers,      !- Dry-Bulb Temperature Range Modifier Type
  ,                        !- Dry-Bulb Temperature Range Modifier Day Schedule Name
  Wetbulb,                 !- Humidity Condition Type
  -22.9,                   !- Wetbulb or DewPoint at Maximum Dry-Bulb {C}
  ,                        !- Humidity Condition Day Schedule Name
  ,                        !- Humidity Ratio at Maximum Dry-Bulb {kgWater/kgDryAir}
  ,                        !- Enthalpy at Maximum Dry-Bulb {J/kg}
  ,                        !- Daily Wet-Bulb Temperature Range {deltaC}
  96634,                   !- Barometric Pressure {Pa}
  5.7,                     !- Wind Speed {m/s}
  310,                     !- Wind Direction {deg}
  No,                      !- Rain Indicator
  No,                      !- Snow Indicator
  No,                      !- Daylight Saving Time Indicator
  ASHRAEClearSky,          !- Solar Model Indicator
  ,                        !- Beam Solar Day Schedule Name
  ,                        !- Diffuse Solar Day Schedule Name
  ,                        !- ASHRAE Clear Sky Optical Depth for Beam Irradiance (taub) {dimensionless}
  ,                        !- ASHRAE Clear Sky Optical Depth for Diffuse Irradiance (taud) {dimensionless}
  0;                       !- Sky Clearness

SizingPeriod:DesignDay,
  Rochester International Arpt Ann Hum_n 99.6% Condns DP=>MCDB,  !- Name
  1,                       !- Month
  21,                      !- Day of Month
  WinterDesignDay,         !- Day Type
  -25.9,                   !- Maximum Dry-Bulb Temperature {C}
  0,                       !- Daily Dry-Bulb Temperature Range {deltaC}
  DefaultMultipliers,      !- Dry-Bulb Temperature Range Modifier Type
  ,                        !- Dry-Bulb Temperature Range Modifier Day Schedule Name
  Dewpoint,                !- Humidity Condition Type
  -29.7,                   !- Wetbulb or DewPoint at Maximum Dry-Bulb {C}
  ,                        !- Humidity Condition Day Schedule Name
  ,                        !- Humidity Ratio at Maximum Dry-Bulb {kgWater/kgDryAir}
  ,                        !- Enthalpy at Maximum Dry-Bulb {J/kg}
  ,                        !- Daily Wet-Bulb Temperature Range {deltaC}
  96634,                   !- Barometric Pressure {Pa}
  5.7,                     !- Wind Speed {m/s}
  310,                     !- Wind Direction {deg}
  No,                      !- Rain Indicator
  No,                      !- Snow Indicator
  No,                      !- Daylight Saving Time Indicator
  ASHRAEClearSky,          !- Solar Model Indicator
  ,                        !- Beam Solar Day Schedule Name
  ,                        !- Diffuse Solar Day Schedule Name
  ,                        !- ASHRAE Clear Sky Optical Depth for Beam Irradiance (taub) {dimensionless}
  ,                        !- ASHRAE Clear Sky Optical Depth for Diffuse Irradiance (taud) {dimensionless}
  0;                       !- Sky Clearness

SizingPeriod:DesignDay,
  Rochester International Arpt Ann Hum_n 99% Condns DP=>MCDB,  !- Name
  1,                       !- Month
  21,                      !- Day of Month
  WinterDesignDay,         !- Day Type
  -22.6,                   !- Maximum Dry-Bulb Temperature {C}
  0,                       !- Daily Dry-Bulb Temperature Range {deltaC}
  DefaultMultipliers,      !- Dry-Bulb Temperature Range Modifier Type
  ,                        !- Dry-Bulb Temperature Range Modifier Day Schedule Name
  Dewpoint,                !- Humidity Condition Type
  -26.6,                   !- Wetbulb or DewPoint at Maximum Dry-Bulb {C}
  ,                        !- Humidity Condition Day Schedule Name
  ,                        !- Humidity Ratio at Maximum Dry-Bulb {kgWater/kgDryAir}
  ,                        !- Enthalpy at Maximum Dry-Bulb {J/kg}
  ,                        !- Daily Wet-Bulb Temperature Range {deltaC}
  96634,                   !- Barometric Pressure {Pa}
  5.7,                     !- Wind Speed {m/s}
  310,                     !- Wind Direction {deg}
  No,                      !- Rain Indicator
  No,                      !- Snow Indicator
  No,                      !- Daylight Saving Time Indicator
  ASHRAEClearSky,          !- Solar Model Indicator
  ,                        !- Beam Solar Day Schedule Name
  ,                        !- Diffuse Solar Day Schedule Name
  ,                        !- ASHRAE Clear Sky Optical Depth for Beam Irradiance (taub) {dimensionless}
  ,                        !- ASHRAE Clear Sky Optical Depth for Diffuse Irradiance (taud) {dimensionless}
  0;                       !- Sky Clearness

SizingPeriod:DesignDay,
  Rochester International Arpt Ann Htg Wind 99.6% Condns WS=>MCDB,  !- Name
  1,                       !- Month
  21,                      !- Day of Month
  WinterDesignDay,         !- Day Type
  -9.6,                    !- Maximum Dry-Bulb Temperature {C}
  0,                       !- Daily Dry-Bulb Temperature Range {deltaC}
  DefaultMultipliers,      !- Dry-Bulb Temperature Range Modifier Type
  ,                        !- Dry-Bulb Temperature Range Modifier Day Schedule Name
  Wetbulb,                 !- Humidity Condition Type
  -9.6,                    !- Wetbulb or DewPoint at Maximum Dry-Bulb {C}
  ,                        !- Humidity Condition Day Schedule Name
  ,                        !- Humidity Ratio at Maximum Dry-Bulb {kgWater/kgDryAir}
  ,                        !- Enthalpy at Maximum Dry-Bulb {J/kg}
  ,                        !- Daily Wet-Bulb Temperature Range {deltaC}
  96634,                   !- Barometric Pressure {Pa}
  15.8,                    !- Wind Speed {m/s}
  310,                     !- Wind Direction {deg}
  No,                      !- Rain Indicator
  No,                      !- Snow Indicator
  No,                      !- Daylight Saving Time Indicator
  ASHRAEClearSky,          !- Solar Model Indicator
  ,                        !- Beam Solar Day Schedule Name
  ,                        !- Diffuse Solar Day Schedule Name
  ,                        !- ASHRAE Clear Sky Optical Depth for Beam Irradiance (taub) {dimensionless}
  ,                        !- ASHRAE Clear Sky Optical Depth for Diffuse Irradiance (taud) {dimensionless}
  0;                       !- Sky Clearness

SizingPeriod:DesignDay,
  Rochester International Arpt Ann Htg Wind 99% Condns WS=>MCDB,  !- Name
  1,                       !- Month
  21,                      !- Day of Month
  WinterDesignDay,         !- Day Type
  -9.7,                    !- Maximum Dry-Bulb Temperature {C}
  0,                       !- Daily Dry-Bulb Temperature Range {deltaC}
  DefaultMultipliers,      !- Dry-Bulb Temperature Range Modifier Type
  ,                        !- Dry-Bulb Temperature Range Modifier Day Schedule Name
  Wetbulb,                 !- Humidity Condition Type
  -9.7,                    !- Wetbulb or DewPoint at Maximum Dry-Bulb {C}
  ,                        !- Humidity Condition Day Schedule Name
  ,                        !- Humidity Ratio at Maximum Dry-Bulb {kgWater/kgDryAir}
  ,                        !- Enthalpy at Maximum Dry-Bulb {J/kg}
  ,                        !- Daily Wet-Bulb Temperature Range {deltaC}
  96634,                   !- Barometric Pressure {Pa}
  14.2,                    !- Wind Speed {m/s}
  310,                     !- Wind Direction {deg}
  No,                      !- Rain Indicator
  No,                      !- Snow Indicator
  No,                      !- Daylight Saving Time Indicator
  ASHRAEClearSky,          !- Solar Model Indicator
  ,                        !- Beam Solar Day Schedule Name
  ,                        !- Diffuse Solar Day Schedule Name
  ,                        !- ASHRAE Clear Sky Optical Depth for Beam Irradiance (taub) {dimensionless}
  ,                        !- ASHRAE Clear Sky Optical Depth for Diffuse Irradiance (taud) {dimensionless}
  0;                       !- Sky Clearness

SizingPeriod:DesignDay,
  Rochester International Arpt Ann Clg .4% Condns DB=>MWB,  !- Name
  7,                       !- Month
  21,                      !- Day of Month
  SummerDesignDay,         !- Day Type
  31.2,                    !- Maximum Dry-Bulb Temperature {C}
  10.6,                    !- Daily Dry-Bulb Temperature Range {deltaC}
  DefaultMultipliers,      !- Dry-Bulb Temperature Range Modifier Type
  ,                        !- Dry-Bulb Temperature Range Modifier Day Schedule Name
  Wetbulb,                 !- Humidity Condition Type
  23.1,                    !- Wetbulb or DewPoint at Maximum Dry-Bulb {C}
  ,                        !- Humidity Condition Day Schedule Name
  ,                        !- Humidity Ratio at Maximum Dry-Bulb {kgWater/kgDryAir}
  ,                        !- Enthalpy at Maximum Dry-Bulb {J/kg}
  ,                        !- Daily Wet-Bulb Temperature Range {deltaC}
  96634,                   !- Barometric Pressure {Pa}
  6.7,                     !- Wind Speed {m/s}
  200,                     !- Wind Direction {deg}
  No,                      !- Rain Indicator
  No,                      !- Snow Indicator
  No,                      !- Daylight Saving Time Indicator
  ASHRAETau,               !- Solar Model Indicator
  ,                        !- Beam Solar Day Schedule Name
  ,                        !- Diffuse Solar Day Schedule Name
  0.404,                   !- ASHRAE Clear Sky Optical Depth for Beam Irradiance (taub) {dimensionless}
  2.226;                   !- ASHRAE Clear Sky Optical Depth for Diffuse Irradiance (taud) {dimensionless}

SizingPeriod:DesignDay,
  Rochester International Arpt Ann Clg 1% Condns DB=>MWB,  !- Name
  7,                       !- Month
  21,                      !- Day of Month
  SummerDesignDay,         !- Day Type
  29.5,                    !- Maximum Dry-Bulb Temperature {C}
  10.6,                    !- Daily Dry-Bulb Temperature Range {deltaC}
  DefaultMultipliers,      !- Dry-Bulb Temperature Range Modifier Type
  ,                        !- Dry-Bulb Temperature Range Modifier Day Schedule Name
  Wetbulb,                 !- Humidity Condition Type
  22.2,                    !- Wetbulb or DewPoint at Maximum Dry-Bulb {C}
  ,                        !- Humidity Condition Day Schedule Name
  ,                        !- Humidity Ratio at Maximum Dry-Bulb {kgWater/kgDryAir}
  ,                        !- Enthalpy at Maximum Dry-Bulb {J/kg}
  ,                        !- Daily Wet-Bulb Temperature Range {deltaC}
  96634,                   !- Barometric Pressure {Pa}
  6.7,                     !- Wind Speed {m/s}
  200,                     !- Wind Direction {deg}
  No,                      !- Rain Indicator
  No,                      !- Snow Indicator
  No,                      !- Daylight Saving Time Indicator
  ASHRAETau,               !- Solar Model Indicator
  ,                        !- Beam Solar Day Schedule Name
  ,                        !- Diffuse Solar Day Schedule Name
  0.404,                   !- ASHRAE Clear Sky Optical Depth for Beam Irradiance (taub) {dimensionless}
  2.226;                   !- ASHRAE Clear Sky Optical Depth for Diffuse Irradiance (taud) {dimensionless}

SizingPeriod:DesignDay,
  Rochester International Arpt Ann Clg 2% Condns DB=>MWB,  !- Name
  7,                       !- Month
  21,                      !- Day of Month
  SummerDesignDay,         !- Day Type
  28,                      !- Maximum Dry-Bulb Temperature {C}
  10.6,                    !- Daily Dry-Bulb Temperature Range {deltaC}
  DefaultMultipliers,      !- Dry-Bulb Temperature Range Modifier Type
  ,                        !- Dry-Bulb Temperature Range Modifier Day Schedule Name
  Wetbulb,                 !- Humidity Condition Type
  21.3,                    !- Wetbulb or DewPoint at Maximum Dry-Bulb {C}
  ,                        !- Humidity Condition Day Schedule Name
  ,                        !- Humidity Ratio at Maximum Dry-Bulb {kgWater/kgDryAir}
  ,                        !- Enthalpy at Maximum Dry-Bulb {J/kg}
  ,                        !- Daily Wet-Bulb Temperature Range {deltaC}
  96634,                   !- Barometric Pressure {Pa}
  6.7,                     !- Wind Speed {m/s}
  200,                     !- Wind Direction {deg}
  No,                      !- Rain Indicator
  No,                      !- Snow Indicator
  No,                      !- Daylight Saving Time Indicator
  ASHRAETau,               !- Solar Model Indicator
  ,                        !- Beam Solar Day Schedule Name
  ,                        !- Diffuse Solar Day Schedule Name
  0.404,                   !- ASHRAE Clear Sky Optical Depth for Beam Irradiance (taub) {dimensionless}
  2.226;                   !- ASHRAE Clear Sky Optical Depth for Diffuse Irradiance (taud) {dimensionless}

SizingPeriod:DesignDay,
  Rochester International Arpt Ann Clg .4% Condns WB=>MDB,  !- Name
  7,                       !- Month
  21,                      !- Day of Month
  SummerDesignDay,         !- Day Type
  29.2,                    !- Maximum Dry-Bulb Temperature {C}
  10.6,                    !- Daily Dry-Bulb Temperature Range {deltaC}
  DefaultMultipliers,      !- Dry-Bulb Temperature Range Modifier Type
  ,                        !- Dry-Bulb Temperature Range Modifier Day Schedule Name
  Wetbulb,                 !- Humidity Condition Type
  24.9,                    !- Wetbulb or DewPoint at Maximum Dry-Bulb {C}
  ,                        !- Humidity Condition Day Schedule Name
  ,                        !- Humidity Ratio at Maximum Dry-Bulb {kgWater/kgDryAir}
  ,                        !- Enthalpy at Maximum Dry-Bulb {J/kg}
  ,                        !- Daily Wet-Bulb Temperature Range {deltaC}
  96634,                   !- Barometric Pressure {Pa}
  6.7,                     !- Wind Speed {m/s}
  200,                     !- Wind Direction {deg}
  No,                      !- Rain Indicator
  No,                      !- Snow Indicator
  No,                      !- Daylight Saving Time Indicator
  ASHRAETau,               !- Solar Model Indicator
  ,                        !- Beam Solar Day Schedule Name
  ,                        !- Diffuse Solar Day Schedule Name
  0.404,                   !- ASHRAE Clear Sky Optical Depth for Beam Irradiance (taub) {dimensionless}
  2.226;                   !- ASHRAE Clear Sky Optical Depth for Diffuse Irradiance (taud) {dimensionless}

SizingPeriod:DesignDay,
  Rochester International Arpt Ann Clg 1% Condns WB=>MDB,  !- Name
  7,                       !- Month
  21,                      !- Day of Month
  SummerDesignDay,         !- Day Type
  27.7,                    !- Maximum Dry-Bulb Temperature {C}
  10.6,                    !- Daily Dry-Bulb Temperature Range {deltaC}
  DefaultMultipliers,      !- Dry-Bulb Temperature Range Modifier Type
  ,                        !- Dry-Bulb Temperature Range Modifier Day Schedule Name
  Wetbulb,                 !- Humidity Condition Type
  23.7,                    !- Wetbulb or DewPoint at Maximum Dry-Bulb {C}
  ,                        !- Humidity Condition Day Schedule Name
  ,                        !- Humidity Ratio at Maximum Dry-Bulb {kgWater/kgDryAir}
  ,                        !- Enthalpy at Maximum Dry-Bulb {J/kg}
  ,                        !- Daily Wet-Bulb Temperature Range {deltaC}
  96634,                   !- Barometric Pressure {Pa}
  6.7,                     !- Wind Speed {m/s}
  200,                     !- Wind Direction {deg}
  No,                      !- Rain Indicator
  No,                      !- Snow Indicator
  No,                      !- Daylight Saving Time Indicator
  ASHRAETau,               !- Solar Model Indicator
  ,                        !- Beam Solar Day Schedule Name
  ,                        !- Diffuse Solar Day Schedule Name
  0.404,                   !- ASHRAE Clear Sky Optical Depth for Beam Irradiance (taub) {dimensionless}
  2.226;                   !- ASHRAE Clear Sky Optical Depth for Diffuse Irradiance (taud) {dimensionless}

SizingPeriod:DesignDay,
  Rochester International Arpt Ann Clg 2% Condns WB=>MDB,  !- Name
  7,                       !- Month
  21,                      !- Day of Month
  SummerDesignDay,         !- Day Type
  26.5,                    !- Maximum Dry-Bulb Temperature {C}
  10.6,                    !- Daily Dry-Bulb Temperature Range {deltaC}
  DefaultMultipliers,      !- Dry-Bulb Temperature Range Modifier Type
  ,                        !- Dry-Bulb Temperature Range Modifier Day Schedule Name
  Wetbulb,                 !- Humidity Condition Type
  22.6,                    !- Wetbulb or DewPoint at Maximum Dry-Bulb {C}
  ,                        !- Humidity Condition Day Schedule Name
  ,                        !- Humidity Ratio at Maximum Dry-Bulb {kgWater/kgDryAir}
  ,                        !- Enthalpy at Maximum Dry-Bulb {J/kg}
  ,                        !- Daily Wet-Bulb Temperature Range {deltaC}
  96634,                   !- Barometric Pressure {Pa}
  6.7,                     !- Wind Speed {m/s}
  200,                     !- Wind Direction {deg}
  No,                      !- Rain Indicator
  No,                      !- Snow Indicator
  No,                      !- Daylight Saving Time Indicator
  ASHRAETau,               !- Solar Model Indicator
  ,                        !- Beam Solar Day Schedule Name
  ,                        !- Diffuse Solar Day Schedule Name
  0.404,                   !- ASHRAE Clear Sky Optical Depth for Beam Irradiance (taub) {dimensionless}
  2.226;                   !- ASHRAE Clear Sky Optical Depth for Diffuse Irradiance (taud) {dimensionless}

SizingPeriod:DesignDay,
  Rochester International Arpt Ann Clg .4% Condns DP=>MDB,  !- Name
  7,                       !- Month
  21,                      !- Day of Month
  SummerDesignDay,         !- Day Type
  27.7,                    !- Maximum Dry-Bulb Temperature {C}
  10.6,                    !- Daily Dry-Bulb Temperature Range {deltaC}
  DefaultMultipliers,      !- Dry-Bulb Temperature Range Modifier Type
  ,                        !- Dry-Bulb Temperature Range Modifier Day Schedule Name
  Dewpoint,                !- Humidity Condition Type
  23.5,                    !- Wetbulb or DewPoint at Maximum Dry-Bulb {C}
  ,                        !- Humidity Condition Day Schedule Name
  ,                        !- Humidity Ratio at Maximum Dry-Bulb {kgWater/kgDryAir}
  ,                        !- Enthalpy at Maximum Dry-Bulb {J/kg}
  ,                        !- Daily Wet-Bulb Temperature Range {deltaC}
  96634,                   !- Barometric Pressure {Pa}
  6.7,                     !- Wind Speed {m/s}
  200,                     !- Wind Direction {deg}
  No,                      !- Rain Indicator
  No,                      !- Snow Indicator
  No,                      !- Daylight Saving Time Indicator
  ASHRAETau,               !- Solar Model Indicator
  ,                        !- Beam Solar Day Schedule Name
  ,                        !- Diffuse Solar Day Schedule Name
  0.404,                   !- ASHRAE Clear Sky Optical Depth for Beam Irradiance (taub) {dimensionless}
  2.226;                   !- ASHRAE Clear Sky Optical Depth for Diffuse Irradiance (taud) {dimensionless}

SizingPeriod:DesignDay,
  Rochester International Arpt Ann Clg 1% Condns DP=>MDB,  !- Name
  7,                       !- Month
  21,                      !- Day of Month
  SummerDesignDay,         !- Day Type
  26.5,                    !- Maximum Dry-Bulb Temperature {C}
  10.6,                    !- Daily Dry-Bulb Temperature Range {deltaC}
  DefaultMultipliers,      !- Dry-Bulb Temperature Range Modifier Type
  ,                        !- Dry-Bulb Temperature Range Modifier Day Schedule Name
  Dewpoint,                !- Humidity Condition Type
  22.3,                    !- Wetbulb or DewPoint at Maximum Dry-Bulb {C}
  ,                        !- Humidity Condition Day Schedule Name
  ,                        !- Humidity Ratio at Maximum Dry-Bulb {kgWater/kgDryAir}
  ,                        !- Enthalpy at Maximum Dry-Bulb {J/kg}
  ,                        !- Daily Wet-Bulb Temperature Range {deltaC}
  96634,                   !- Barometric Pressure {Pa}
  6.7,                     !- Wind Speed {m/s}
  200,                     !- Wind Direction {deg}
  No,                      !- Rain Indicator
  No,                      !- Snow Indicator
  No,                      !- Daylight Saving Time Indicator
  ASHRAETau,               !- Solar Model Indicator
  ,                        !- Beam Solar Day Schedule Name
  ,                        !- Diffuse Solar Day Schedule Name
  0.404,                   !- ASHRAE Clear Sky Optical Depth for Beam Irradiance (taub) {dimensionless}
  2.226;                   !- ASHRAE Clear Sky Optical Depth for Diffuse Irradiance (taud) {dimensionless}

SizingPeriod:DesignDay,
  Rochester International Arpt Ann Clg 2% Condns DP=>MDB,  !- Name
  7,                       !- Month
  21,                      !- Day of Month
  SummerDesignDay,         !- Day Type
  25.3,                    !- Maximum Dry-Bulb Temperature {C}
  10.6,                    !- Daily Dry-Bulb Temperature Range {deltaC}
  DefaultMultipliers,      !- Dry-Bulb Temperature Range Modifier Type
  ,                        !- Dry-Bulb Temperature Range Modifier Day Schedule Name
  Dewpoint,                !- Humidity Condition Type
  21.2,                    !- Wetbulb or DewPoint at Maximum Dry-Bulb {C}
  ,                        !- Humidity Condition Day Schedule Name
  ,                        !- Humidity Ratio at Maximum Dry-Bulb {kgWater/kgDryAir}
  ,                        !- Enthalpy at Maximum Dry-Bulb {J/kg}
  ,                        !- Daily Wet-Bulb Temperature Range {deltaC}
  96634,                   !- Barometric Pressure {Pa}
  6.7,                     !- Wind Speed {m/s}
  200,                     !- Wind Direction {deg}
  No,                      !- Rain Indicator
  No,                      !- Snow Indicator
  No,                      !- Daylight Saving Time Indicator
  ASHRAETau,               !- Solar Model Indicator
  ,                        !- Beam Solar Day Schedule Name
  ,                        !- Diffuse Solar Day Schedule Name
  0.404,                   !- ASHRAE Clear Sky Optical Depth for Beam Irradiance (taub) {dimensionless}
  2.226;                   !- ASHRAE Clear Sky Optical Depth for Diffuse Irradiance (taud) {dimensionless}

SizingPeriod:DesignDay,
  Rochester International Arpt Ann Clg .4% Condns Enth=>MDB,  !- Name
  7,                       !- Month
  21,                      !- Day of Month
  SummerDesignDay,         !- Day Type
  29.4,                    !- Maximum Dry-Bulb Temperature {C}
  10.6,                    !- Daily Dry-Bulb Temperature Range {deltaC}
  DefaultMultipliers,      !- Dry-Bulb Temperature Range Modifier Type
  ,                        !- Dry-Bulb Temperature Range Modifier Day Schedule Name
  Enthalpy,                !- Humidity Condition Type
  ,                        !- Wetbulb or DewPoint at Maximum Dry-Bulb {C}
  ,                        !- Humidity Condition Day Schedule Name
  ,                        !- Humidity Ratio at Maximum Dry-Bulb {kgWater/kgDryAir}
  77700,                   !- Enthalpy at Maximum Dry-Bulb {J/kg}
  ,                        !- Daily Wet-Bulb Temperature Range {deltaC}
  96634,                   !- Barometric Pressure {Pa}
  6.7,                     !- Wind Speed {m/s}
  200,                     !- Wind Direction {deg}
  No,                      !- Rain Indicator
  No,                      !- Snow Indicator
  No,                      !- Daylight Saving Time Indicator
  ASHRAETau,               !- Solar Model Indicator
  ,                        !- Beam Solar Day Schedule Name
  ,                        !- Diffuse Solar Day Schedule Name
  0.404,                   !- ASHRAE Clear Sky Optical Depth for Beam Irradiance (taub) {dimensionless}
  2.226;                   !- ASHRAE Clear Sky Optical Depth for Diffuse Irradiance (taud) {dimensionless}

SizingPeriod:DesignDay,
  Rochester International Arpt Ann Clg 1% Condns Enth=>MDB,  !- Name
  7,                       !- Month
  21,                      !- Day of Month
  SummerDesignDay,         !- Day Type
  27.7,                    !- Maximum Dry-Bulb Temperature {C}
  10.6,                    !- Daily Dry-Bulb Temperature Range {deltaC}
  DefaultMultipliers,      !- Dry-Bulb Temperature Range Modifier Type
  ,                        !- Dry-Bulb Temperature Range Modifier Day Schedule Name
  Enthalpy,                !- Humidity Condition Type
  ,                        !- Wetbulb or DewPoint at Maximum Dry-Bulb {C}
  ,                        !- Humidity Condition Day Schedule Name
  ,                        !- Humidity Ratio at Maximum Dry-Bulb {kgWater/kgDryAir}
  72800,                   !- Enthalpy at Maximum Dry-Bulb {J/kg}
  ,                        !- Daily Wet-Bulb Temperature Range {deltaC}
  96634,                   !- Barometric Pressure {Pa}
  6.7,                     !- Wind Speed {m/s}
  200,                     !- Wind Direction {deg}
  No,                      !- Rain Indicator
  No,                      !- Snow Indicator
  No,                      !- Daylight Saving Time Indicator
  ASHRAETau,               !- Solar Model Indicator
  ,                        !- Beam Solar Day Schedule Name
  ,                        !- Diffuse Solar Day Schedule Name
  0.404,                   !- ASHRAE Clear Sky Optical Depth for Beam Irradiance (taub) {dimensionless}
  2.226;                   !- ASHRAE Clear Sky Optical Depth for Diffuse Irradiance (taud) {dimensionless}

SizingPeriod:DesignDay,
  Rochester International Arpt Ann Clg 2% Condns Enth=>MDB,  !- Name
  7,                       !- Month
  21,                      !- Day of Month
  SummerDesignDay,         !- Day Type
  26.4,                    !- Maximum Dry-Bulb Temperature {C}
  10.6,                    !- Daily Dry-Bulb Temperature Range {deltaC}
  DefaultMultipliers,      !- Dry-Bulb Temperature Range Modifier Type
  ,                        !- Dry-Bulb Temperature Range Modifier Day Schedule Name
  Enthalpy,                !- Humidity Condition Type
  ,                        !- Wetbulb or DewPoint at Maximum Dry-Bulb {C}
  ,                        !- Humidity Condition Day Schedule Name
  ,                        !- Humidity Ratio at Maximum Dry-Bulb {kgWater/kgDryAir}
  68600,                   !- Enthalpy at Maximum Dry-Bulb {J/kg}
  ,                        !- Daily Wet-Bulb Temperature Range {deltaC}
  96634,                   !- Barometric Pressure {Pa}
  6.7,                     !- Wind Speed {m/s}
  200,                     !- Wind Direction {deg}
  No,                      !- Rain Indicator
  No,                      !- Snow Indicator